Circuit: * C:\Users\carri\OneDrive\Desktop\Master's Thesis\AC_Voltage_Sensing.asc

WARNING: Node VAC_IN is floating.

Direct Newton iteration for .op point succeeded.

Date: Wed Jan 15 23:30:17 2025
Total elapsed time: 0.153 seconds.

tnom = 27
temp = 27
method = modified trap
totiter = 4143
traniter = 4128
tranpoints = 2065
accept = 1532
rejected = 533
matrix size = 18
fillins = 11
solver = Normal
Matrix Compiler1: 1.99 KB object code size  0.7/0.4/[0.2]
Matrix Compiler2: 1.71 KB object code size  0.3/0.4/[0.2]

