Circuit: * C:\Users\carri\OneDrive\Desktop\Master's Thesis\AtInverter\sims\AC_Voltage_Sensing2.asc

Direct Newton iteration failed to find .op point.  (Use ".option noopiter" to skip.)
Starting Gmin stepping
Gmin = 10
Gmin = 1.07374
Gmin = 0.115292
Gmin = 0.0123794
Gmin = 0.00132923
Gmin = 0.000142725
Gmin = 1.5325e-005
Gmin = 1.6455e-006
vernier = 0.5
Gmin = 3.06744e-007
vernier = 0.666667
Gmin = 7.59426e-008
vernier = 0.888888
vernier = 1
Gmin = 9.33136e-009
Gmin = 1.00195e-009
Gmin = 1.07583e-010
Gmin = 1.15517e-011
Gmin = 1.24035e-012
Gmin = 1.33182e-013
Gmin = 0
Gmin stepping succeeded in finding the operating point.


Date: Sun Apr 20 20:26:52 2025
Total elapsed time: 0.124 seconds.

tnom = 27
temp = 27
method = modified trap
totiter = 2610
traniter = 2094
tranpoints = 1048
accept = 1048
rejected = 0
matrix size = 25
fillins = 27
solver = Normal
Thread vector: 26.8/3.4[2] 1.8/1.1[2] 1.1/0.7[2] 0.1/0.7[1]  2592/500
Matrix Compiler1: 2.70 KB object code size  0.5/0.2/[0.2]
Matrix Compiler2: off  [0.2]/0.3/0.3

